130 
 
C6    0.000   0.500   0.000 
C7    1.000   0.500   0.000 
C8    2.000   0.500   0.000 
C9    3.000   0.500   0.000 
C10    4.000   0.500   0.000 
C11    5.000   0.500   0.000 
C12    6.000   0.500   0.000 
C13    7.000   0.500   0.000 
C14    8.000   0.500   0.000 
C15    9.000   0.500   0.000 
C16    0.000   0.443   0.232 
C17    1.000   0.443   0.232 
C18    2.000   0.443   0.232 
C19    3.000   0.443   0.232 
C20    4.000   0.443   0.232 
C21    5.000   0.443   0.232 
C22    6.000   0.443   0.232 
C23    7.000   0.443   0.232 
C24    8.000   0.443   0.232 
C25    9.000   0.443   0.232 
C26    0.000   0.284   0.411 
C27    1.000   0.284   0.411 
C28    2.000   0.284   0.411 
C29    3.000   0.284   0.411 
C30    4.000   0.284   0.411 
C31    5.000   0.284   0.411 
C32    6.000   0.284   0.411 
C33    7.000   0.284   0.411 
C34    8.000   0.284   0.411 
C35    9.000   0.284   0.411 
C36    0.000   0.060   0.496 
C37    1.000   0.060   0.496 
C38    2.000   0.060   0.496 
C39    3.000   0.060   0.496 
C40    4.000   0.060   0.496 
C41    5.000   0.060   0.496 
C42    6.000   0.060   0.496 
C43    7.000   0.060   0.496 
C44    8.000   0.060   0.496 
C45    9.000   0.060   0.496 
C46    0.000  -0.177   0.468 
C47    1.000  -0.177   0.468 
C48    2.000  -0.177   0.468 
C49    3.000  -0.177   0.468 
C50    4.000  -0.177   0.468 
C51    5.000  -0.177   0.468 
C52    6.000  -0.177   0.468 
C53    7.000  -0.177   0.468 
C54    8.000  -0.177   0.468 
C55    9.000  -0.177   0.468 
C56    0.000  -0.374   0.332 
C57    1.000  -0.374   0.332 
C58    2.000  -0.374   0.332 
C59    3.000  -0.374   0.332 
C60    4.000  -0.374   0.332 
C61    5.000  -0.374   0.332 
C62    6.000  -0.374   0.332 
C63    7.000  -0.374   0.332 
C64    8.000  -0.374   0.332 
C65    9.000  -0.374   0.332 
C66    0.000  -0.485   0.120 
C67    1.000  -0.485   0.120 
C68    2.000  -0.485   0.120 
C69    3.000  -0.485   0.120 
C70    4.000  -0.485   0.120 
C71    5.000  -0.485   0.120 
C72    6.000  -0.485   0.120 
C73    7.000  -0.485   0.120 
C74    8.000  -0.485   0.120 
C75    9.000  -0.485   0.120 
C76    0.000  -0.485  -0.120 
C77    1.000  -0.485  -0.120 
C78    2.000  -0.485  -0.120 
C79    3.000  -0.485  -0.120 
C80    4.000  -0.485  -0.120 
C81    5.000  -0.485  -0.120 
C82    6.000  -0.485  -0.120 
C83    7.000  -0.485  -0.120 
C84    8.000  -0.485  -0.120 
C85    9.000  -0.485  -0.120 
C86    0.000  -0.374  -0.332 
C87    1.000  -0.374  -0.332 
C88    2.000  -0.374  -0.332 
C89    3.000  -0.374  -0.332 
C90    4.000  -0.374  -0.332 
C91    5.000  -0.374  -0.332 
C92    6.000  -0.374  -0.332 
C93    7.000  -0.374  -0.332 
C94    8.000  -0.374  -0.332 
C95    9.000  -0.374  -0.332 
C96    0.000  -0.177  -0.468 
C97    1.000  -0.177  -0.468 
C98    2.000  -0.177  -0.468 
C99    3.000  -0.177  -0.468 
C100    4.000  -0.177  -0.468 
C101    5.000  -0.177  -0.468 
C102    6.000  -0.177  -0.468 
C103    7.000  -0.177  -0.468 
C104    8.000  -0.177  -0.468 
C105    9.000  -0.177  -0.468 
C106    0.000   0.060  -0.496 
C107    1.000   0.060  -0.496 
C108    2.000   0.060  -0.496 
C109    3.000   0.060  -0.496 
C110    4.000   0.060  -0.496 
C111    5.000   0.060  -0.496 
C112    6.000   0.060  -0.496 
C113    7.000   0.060  -0.496 
C114    8.000   0.060  -0.496 
C115    9.000   0.060  -0.496 
C116    0.000   0.284  -0.411 
C117    1.000   0.284  -0.411 
C118    2.000   0.284  -0.411 
C119    3.000   0.284  -0.411 
C120    4.000   0.284  -0.411 
C121    5.000   0.284  -0.411 
C122    6.000   0.284  -0.411 
C123    7.000   0.284  -0.411 
C124    8.000   0.284  -0.411 
C125    9.000   0.284  -0.411 
C126    0.000   0.443  -0.232 
C127    1.000   0.443  -0.232 
C128    2.000   0.443  -0.232 
C129    3.000   0.443  -0.232 
C130    4.000   0.443  -0.232 
C131    5.000   0.443  -0.232 
C132    6.000   0.443  -0.232 
C133    7.000   0.443  -0.232 
C134    8.000   0.443  -0.232 
C135    9.000   0.443  -0.232 
